            TRNSYS - the TRaNsient SYstem Simulation program

   The Solar Energy Lab at the University of Wisconsin - Madison, USA
Le Centre Scientifique et Technique du Batiment, Sophia Antipolis, France
           Transsolar Energietechnik GmBH, Stuttgart, Germany
        Thermal Energy System Specialists, LLC, Madison Wisconsin, USA

                           Release 18.02.0000
                           User ID  18-D0213

Simulation log for: "C:\Daten\GIT\pytrnsys_gui\data\examples\SolTherm2050_6_SolarIceMfh\SolTherm2050_6_SolarIceMfh_mfs.dck"
 
*** Notice at time        :         0.000000
    Generated by Unit     : Not applicable or not available
    Generated by Type     : Not applicable or not available
    Message               : The TRNSYS Executable (TRNExe.exe) and main DLL (TRNDll.dll) are located in "C:\TRNSYS18\Exe"
 
*** Fatal Error at time   :         0.000000
    Generated by Unit     : Not applicable or not available
    Generated by Type     : Not applicable or not available
    TRNSYS Message     98 : Unrecognized variable name or bad data card. TRNSYS was looking for a numerical value or the name of a variable defined in an equation/constant and instead it found the data in "reported information" below.
    Reported information  : MFRPIRadOut
 
*** Fatal Error at time   :         0.000000
    Generated by Unit     : Not applicable or not available
    Generated by Type     : Not applicable or not available
    TRNSYS Message     77 : The TRNSYS Processor has found an illegal INPUT specification in a UNIT-TYPE statement. INPUTS must be outputs from other components ([1,5]) for example), previously defined EQUATION names, or constants (0,0)
    Reported information  : Not available
 
*** Notice at time        :         0.000000
    Generated by Unit     : Not applicable or not available
    Generated by Type     : Not applicable or not available
    TRNSYS Message    503 : Just before reporting the error while processing the TRNSYS input file, the TRNSYS processor was performing the task listed in the reported information line below.
    Reported information  : Processing the keyword: PARAMETERS : for the UNIT 441 TYPE 811 component.
 
*** Fatal Error at time   :         0.000000
    Generated by Unit     : Not applicable or not available
    Generated by Type     : Not applicable or not available
    Message               : Errors found while processing the TRNSYS input file.
 
*** End of the simulation
    Total Notices         :         2
    Total Warnings        :         0
    Total Fatal Errors    :         3
 
    Total TRNSYS Calculation Time     :             0.3900 seconds
    Calculation time inside the Types :             0.0000 seconds
 
    TRNSYS Calculation Time Breakdown by Unit Number
 
    TRNSYS Calculation Time Breakdown by Type Number
 
    TRNSYS Iterative Call Breakdown by Unit Number
 
*** Simulation stopped with errors
    Total Notices         :         2
    Total Warnings        :         0
    Total Fatal Errors    :         3
